          58
     -206.2165383530      222.7843280121     2  0.59043550E+09
L1         2.2750183329         1.2483620996        -1.0735238064    0.80467    0.23136   -3.80716
L1        -0.2280033621         1.2306712711         0.3876531254    0.73777    0.27141   -3.81962
L1        -1.8627505725        -1.4190425329        -3.5482404930   -0.18436    0.11601   -3.63451
L1        -2.4019414429        -1.3895566454         4.0113263039    0.04947    0.09725   -3.61445
L1        -0.1225322544         2.0417747230        -2.3368137452    1.37351    0.08891   -3.76040
L1        -0.6845938154         2.1136571981         5.0658512239   -0.29153    0.14876   -3.41721
L1         2.2976708955         1.9523674455        -3.8340447079    0.04947    0.18614   -3.61445
L1         3.0633552221        -3.3203836908        -2.4279050192   -0.34707    0.17944   -3.42243
L1        -0.3116958061         0.3020152652         3.0750917399    1.37351    0.40554   -3.76040
L1         2.6123855994        -1.5097059991        -0.4228995752    1.49776    0.21110   -3.74770
L1         4.4489648875        -0.4808605209         2.8517567111   -0.34701    0.22970   -3.42220
L1         0.6579169811        -3.5511736489        -1.1185956576    0.26486    0.13110   -3.67990
L1         4.9701472460        -1.4733409348        -1.7800948815   -0.33201    0.29275   -3.42359
L1         0.2623798889        -0.7240424758        -1.7549365922    0.84443    0.16881   -3.81187
L1         3.0014251548        -4.1408093187         0.2057254864   -0.35196    0.30660   -3.42382
L1        -2.6825270380         3.1563823698        -2.0175542879   -0.43963    0.17188   -3.51281
L1        -4.7598238874        -0.0976546543         4.1097165721   -0.14361    0.24838   -3.33212
L1        -3.9474880025        -2.8799056513        -2.4744721360   -0.31639    0.18904   -3.42454
L1        -2.8327778315         1.6078380882         3.3337597829    0.03661    0.16026   -3.61458
L1        -1.4872854094        -4.0319135608        -2.7800778648   -0.35196    0.18271   -3.42382
L1        -0.6379865537         3.0645030150         2.4503904289   -0.36475    0.24347   -3.57279
L1         4.0803289104         3.7652977252        -2.9544338661   -0.14361    0.04599   -3.33212
L1        -2.3142947911         0.4723626976        -1.3827784950    1.37047    0.20671   -3.76376
L1        -2.2266584755         1.3100641716        -4.0397310147   -0.44282    0.27063   -3.51279
L1         2.7117261494        -0.7196139616        -3.1941707378   -0.21953    0.15350   -3.63671
L1         1.7923883465         4.0077697559        -1.5648813421    0.03661    0.06052   -3.61458
L1         1.7738821510         3.1360923984         1.0795930799   -0.22698    0.18963   -3.64014
L1        -0.1224109185         2.8370423984        -4.9332483870   -0.30316    0.32264   -3.41710
L1        -4.0042560434        -3.7401548029         0.1378790108   -0.33201    0.21202   -3.42359
L1         1.7955244543         4.5716382839        -4.2002716776   -0.13918    0.26343   -3.32934
L1        -4.7677222857         1.5897007402        -1.0751839482   -0.35421    0.33170   -3.42095
L1        -2.8027466981         2.4173084239         0.6696905797   -0.22698    0.08252   -3.64014
L1        -2.7486880135         0.5731586841         5.8208478739   -0.13918    0.27029   -3.32934
L1         4.0700493789         2.1760595685         2.2613729405   -0.35421    0.18808   -3.42095
L1         0.6929695129        -2.5828537124        -3.7108132918   -0.47979    0.38702   -3.49959
L1        -4.5009857647        -1.9637568130         2.1768800540   -0.33854    0.17757   -3.49566
L1        -0.3044250119        -0.5331522795         5.6589581933   -0.30316    0.33152   -3.41710
L1         0.2745215593         0.1269512629        -4.4159106690   -0.38332    0.29719   -3.57323
L1         4.1879438505         3.0592179834        -0.3485210916   -0.34930    0.31073   -3.49590
L1        -1.9833846103        -3.2116834059         1.9558386870   -0.21953    0.21659   -3.63671
L1         0.1708840763        -1.6145437382         1.0182977763    0.84443    0.10492   -3.81187
L1        -0.5693891318         4.6548430104        -2.9338194697   -0.29153    0.30905   -3.41721
L1         0.1552920157        -2.4469136678         3.6851382249   -0.38332    0.05941   -3.57323
L1         2.5791466802        -2.4477781185         2.3302181713   -0.18436    0.04771   -3.63451
L1         2.0795278545        -0.5159117859         4.2898836505   -0.44282    0.23210   -3.51279
L1        -1.5424739314        -4.8887273105        -0.1579093669   -0.34707    0.36106   -3.42243
L1        -4.3159812890        -0.2369319743        -3.0778564954   -0.34701    0.29553   -3.42220
L1        -2.4347727213        -0.3860715824         1.3451394887    0.80467    0.30277   -3.80716
L1         1.6960468727         2.1682444315         3.6947756901   -0.43963    0.20784   -3.51281
L1        -0.6546856208         3.9128262758        -0.2525789290   -0.36475    0.28993   -3.57279
L1         4.6461761334         1.1800770613        -2.4237338803   -0.33854    0.32491   -3.49566
L1         4.9045995075        -2.2862007890         0.8471835749   -0.31639    0.25449   -3.42454
L1        -4.5765723758        -1.0987888962        -0.4670364169   -0.12307    0.08306   -3.63115
L1        -1.9171389235        -2.2429584698        -0.7591643227    1.49776    0.33787   -3.74770
L1         0.5753702447        -4.2631387702         1.5543720151   -0.47979    0.38822   -3.49959
L1         4.7066752475         0.3965454712         0.2458344847   -0.12307    0.08137   -3.63115
L1         2.1621116506         0.3490612149         1.6415214706    1.37047    0.23827   -3.76376
L1        -4.8984362223         0.7757366771         1.5565058283   -0.34930    0.30802   -3.49590
