          19
Rh Au      -68.899348        0.000000      -68.899348 -68.89935   0.41176
Rh      2.33771272      2.32981931      7.46546567
Rh      1.02341530      2.71356755      9.75642660
Rh     -1.79001375      3.89314823      6.59734561
Rh      0.58361295      4.25165734      7.61230262
Rh      2.83705751      4.57267040      8.93386248
Rh      0.48865879      5.30300734      9.95682626
Rh     -1.45768379      3.65328948      9.23463441
Rh     -0.33772791      1.81722063      7.60865729
Rh      1.45075387      6.71924061      7.93283879
Rh     -1.22105062      6.10972691      8.08036551
Au      2.23339537      4.39243301     11.77297966
Au      0.10316445      5.79762671      5.49451699
Au      2.64806113      4.83378231      6.02971251
Au     -0.50031809      3.79918701     11.95017015
Au      2.49311894      6.93540223     10.63499760
Au      0.39294504      6.40811279     12.40188146
Au     -0.08106938      7.91054672     10.09350329
Au     -1.92862992      5.96906130     10.89748074
Au      0.64919972      3.09229206      5.21212375
